60

  C    1.235919304   0.000000000  -3.327764158
  C    0.381920069   1.175429108  -3.327764158
  C   -0.999879721   0.726455140  -3.327764158
  C   -0.999879721  -0.726455140  -3.327764158
  C   -1.960832961   1.424628537  -2.593661206
  C    0.748971545   2.305097393  -2.593661206
  C    0.381920069  -1.175429108  -3.327764158
  C    2.423722832   0.000000000  -2.593661206
  C    0.748971545  -2.305097393  -2.593661206
  C   -1.960832961  -1.424628537  -2.593661206
  C   -2.960712682   0.698173396  -1.829821068
  C   -1.578912892   2.600057645  -1.829821068
  C   -2.960712682  -0.698173396  -1.829821068
  C   -1.578912892  -2.600057645  -1.829821068
  C   -0.250908176  -3.031552534  -1.829821068
  C    1.984890849  -2.305097393  -1.829821068
  C    2.805642901  -1.175429108  -1.829821068
  C    2.805642901   1.175429108  -1.829821068
  C    1.984890849   2.305097393  -1.829821068
  C   -0.250908176   3.031552534  -1.829821068
  C   -3.196752265   1.424628537  -0.593901764
  C   -2.342753030   2.600057645  -0.593901764
  C    1.748851266   3.031552534  -0.593901764
  C    0.367051476   3.480526501  -0.593901764
  C    3.423602553  -0.726455140  -0.593901764
  C    3.423602553   0.726455140  -0.593901764
  C    1.748851266  -3.031552534  -0.593901764
  C    0.367051476  -3.480526501  -0.593901764
  C   -2.342753030  -2.600057645  -0.593901764
  C   -3.196752265  -1.424628537  -0.593901764
  C   -3.423602553  -0.726455140   0.593901764
  C   -3.423602553   0.726455140   0.593901764
  C   -1.748851266   3.031552534   0.593901764
  C   -0.367051476   3.480526501   0.593901764
  C    3.196752265   1.424628537   0.593901764
  C    2.342753030   2.600057645   0.593901764
  C    2.342753030  -2.600057645   0.593901764
  C    3.196752265  -1.424628537   0.593901764
  C   -0.367051476  -3.480526501   0.593901764
  C   -1.748851266  -3.031552534   0.593901764
  C   -2.805642901   1.175429108   1.829821068
  C   -1.984890849   2.305097393   1.829821068
  C    0.250908176   3.031552534   1.829821068
  C    1.578912892   2.600057645   1.829821068
  C    2.960712682   0.698173396   1.829821068
  C    2.960712682  -0.698173396   1.829821068
  C    1.578912892  -2.600057645   1.829821068
  C    0.250908176  -3.031552534   1.829821068
  C   -1.984890849  -2.305097393   1.829821068
  C   -2.805642901  -1.175429108   1.829821068
  C   -0.748971545  -2.305097393   2.593661206
  C   -2.423722832   0.000000000   2.593661206
  C   -0.748971545   2.305097393   2.593661206
  C    1.960832961   1.424628537   2.593661206
  C    1.960832961  -1.424628537   2.593661206
  C    0.999879721  -0.726455140   3.327764158
  C   -0.381920069  -1.175429108   3.327764158
  C   -1.235919304   0.000000000   3.327764158
  C   -0.381920069   1.175429108   3.327764158
  C    0.999879721   0.726455140   3.327764158
